8
0 1
C         -2.80255        0.73828       -0.00007
C         -1.28357        0.71234       -0.00003
H         -3.18617        0.32139        0.95491
H         -3.18939        0.12944       -0.84424
H         -3.16117        1.78329       -0.11092
H         -0.92494       -0.33267        0.11081
H         -0.89672        1.32119        0.84414
H         -0.89996        1.12924       -0.95501
